test/fixtures/powermodels/case5_gs/sol_ac_opf.json
{
  "termination_status": "LOCALLY_SOLVED",
  "objective": 18378.703695636374,
  "solution": {
    "baseMVA": 100.0,
    "branch": {
      "4": {
        "qf": -1.2186631438990292,
        "qt": 1.2330596542091814,
        "pt": 0.9212206330761044,
        "pf": -0.9182167620352848
      },
      "1": {
        "qf": -0.08404446389033836,
        "qt": 0.2325631438990291,
        "pt": -2.12330209864358,
        "pf": 2.1387462916970663
      },
      "5": {
        "qf": -0.4903665704095728,
        "qt": 0.49708759873880076,
        "pt": 0.2820049473235742,
        "pf": -0.2807973521816024
      },
      "2": {
        "qf": 0.25943175585300754,
        "qt": -0.1239265476222033,
        "pt": -1.933872681244874,
        "pf": 1.9479638994821624
      },
      "6": {
        "qf": 2.1712069175792754,
        "qt": -2.013647267347998,
        "pt": 0.030959440139278316,
        "pf": -0.014613094845423837
      },
      "7": {
        "qf": 0.20249254566913752,
        "qt": 0.001100810587580627,
        "pt": 2.3999997595284674,
        "pf": -2.3790917160026557
      },
      "3": {
        "qf": 1.3996127258526758,
        "qt": -1.3797961969413162,
        "pt": 1.9912733794289272,
        "pf": -1.9867101654286583
      }
    },
    "gen": {
      "4": {
        "qg": -0.12329367056226315,
        "pg": -9.784677009209539e-9,
        "pg_cost": -3.9138708036838154e-5
      },
      "1": {
        "qg": 0.3000000075326726,
        "pg": 0.4000000095540237,
        "pg_cost": 560.0000133756332
      },
      "5": {
        "qg": -1.3786953863537355,
        "pg": 4.391273138957395,
        "pg_cost": 4391.273138957395
      },
      "2": {
        "qg": 1.2750000102826724,
        "pg": 1.7000000161965467,
        "pg_cost": 2550.00002429482
      },
      "3": {
        "qg": 3.900000001378884,
        "pg": 3.625810186049078,
        "pg_cost": 10877.430558147234
      }
    },
    "multiinfrastructure": false,
    "multinetwork": false,
    "bus": {
      "4": {
        "va": -8.58393795631414e-37,
        "vm": 0.8999999900870237
      },
      "1": {
        "va": 0.07116265528125665,
        "vm": 0.9129387733496632
      },
      "10": {
        "va": 0.08765532904342281,
        "vm": 0.9045514752500057
      },
      "2": {
        "va": -0.001416319365462658,
        "vm": 0.9112503572439911
      },
      "3": {
        "va": 0.008778029021060039,
        "vm": 0.9267390459109287
      }
    },
    "per_unit": true
  }
}

