test/fixtures/powermodels/case5_gs/sol_ac_pf.json
{
  "termination_status": "LOCALLY_SOLVED",
  "objective": 0.0,
  "solution": {
    "baseMVA": 100.0,
    "gen": {
      "4": {
        "qg": 1.9353674777356022,
        "pg": 0.06338079104185695
      },
      "1": {
        "qg": 0.588158847233886,
        "pg": 0.4
      },
      "5": {
        "qg": -0.3767563614788859,
        "pg": 4.70694
      },
      "2": {
        "qg": -0.29392722999490195,
        "pg": 1.7
      },
      "3": {
        "qg": 2.014196138412201,
        "pg": 3.24498
      }
    },
    "multiinfrastructure": false,
    "multinetwork": false,
    "bus": {
      "4": {
        "va": 4.78555023725025e-21,
        "vm": 0.9999999999999997
      },
      "1": {
        "va": 0.06226868762522806,
        "vm": 0.9999999999999988
      },
      "10": {
        "va": 0.07621498410876285,
        "vm": 1.0
      },
      "2": {
        "va": -0.0002681695537039809,
        "vm": 0.9893517983737588
      },
      "3": {
        "va": 0.007932280616281677,
        "vm": 1.0000000000000013
      }
    },
    "per_unit": true
  }
}

