test/fixtures/powermodels/case5_gs/sol_dc_opf.json
{
  "termination_status": "OPTIMAL",
  "objective": 17744.19114295231,
  "solution": {
    "baseMVA": 100.0,
    "branch": {
      "4": {
        "qf": null,
        "qt": null,
        "pt": 0.6220104286290251,
        "pf": -0.6220104286290251
      },
      "1": {
        "qf": null,
        "qt": null,
        "pt": -2.4279895713709783,
        "pf": 2.4279895713709783
      },
      "5": {
        "qf": null,
        "qt": null,
        "pt": 0.14678056124187489,
        "pf": -0.14678056124187489
      },
      "2": {
        "qf": null,
        "qt": null,
        "pt": -1.879914857152873,
        "pf": 1.879914857152873
      },
      "6": {
        "qf": null,
        "qt": null,
        "pt": 0.13313429591099762,
        "pf": -0.13313429591099762
      },
      "7": {
        "qf": null,
        "qt": null,
        "pt": 2.4,
        "pf": -2.4
      },
      "3": {
        "qf": null,
        "qt": null,
        "pt": 2.2079044285238516,
        "pf": -2.2079044285238516
      }
    },
    "gen": {
      "4": {
        "qg": null,
        "pg": 0.0,
        "pg_cost": 0.0
      },
      "1": {
        "qg": null,
        "pg": 0.4,
        "pg_cost": 560.0
      },
      "5": {
        "qg": null,
        "pg": 4.6079044285238515,
        "pg_cost": 4607.9044285238515
      },
      "2": {
        "qg": null,
        "pg": 1.7,
        "pg_cost": 2550.0
      },
      "3": {
        "qg": null,
        "pg": 3.342095571476152,
        "pg_cost": 10026.286714428457
      }
    },
    "multiinfrastructure": false,
    "multinetwork": false,
    "bus": {
      "4": {
        "va": -0.0,
        "vm": 1.0
      },
      "1": {
        "va": 0.057720905774021815,
        "vm": 1.0
      },
      "10": {
        "va": 0.0719928,
        "vm": 1.0
      },
      "2": {
        "va": -0.011187866251057927,
        "vm": 1.0
      },
      "3": {
        "va": -0.004402976495572521,
        "vm": 1.0
      }
    },
    "per_unit": true
  }
}

