test/fixtures/powermodels/case5_gs/sol_dc_pf.json
{
  "termination_status": "OPTIMAL",
  "objective": 0.0,
  "solution": {
    "baseMVA": 100.0,
    "gen": {
      "4": {
        "qg": null,
        "pg": -0.0019200000000032524
      },
      "1": {
        "qg": null,
        "pg": 0.39999999999999986
      },
      "5": {
        "qg": null,
        "pg": 4.70694
      },
      "2": {
        "qg": null,
        "pg": 1.7000000000000002
      },
      "3": {
        "qg": null,
        "pg": 3.24498
      }
    },
    "multiinfrastructure": false,
    "multinetwork": false,
    "bus": {
      "4": {
        "va": -0.0,
        "vm": 1.0
      },
      "1": {
        "va": 0.058408024577402885,
        "vm": 1.0
      },
      "10": {
        "va": 0.07308477663991318,
        "vm": 1.0
      },
      "2": {
        "va": -0.011643193544917515,
        "vm": 1.0
      },
      "3": {
        "va": -0.005297393392642075,
        "vm": 1.0
      }
    },
    "per_unit": true
  }
}

